/*--------------------------------*- C++ -*----------------------------------*\
 Generated by PyCFD
 <info>
\*---------------------------------------------------------------------------*/

/*--------------------------------*- C++ -*----------------------------------*\
  =========                 |
  \\      /  F ield         | OpenFOAM: The Open Source CFD Toolbox
   \\    /   O peration     | Website:  https://openfoam.org
    \\  /    A nd           | Version:  7
     \\/     M anipulation  |
\*---------------------------------------------------------------------------*/
FoamFile
{
    version     2.0;
    format      ascii;
    class       dictionary;
    location    "system";
    object      controlDict;
}
// * * * * * * * * * * * * * * * * * * * * * * * * * * * * * * * * * * * * * //

application     buoyantSimpleFoam;

startFrom       startTime;

startTime       <start_time>;

stopAt          endTime;

endTime         <end_time>;

deltaT          <delta_t>;

writeControl    timeStep;

writeInterval   <write_interval>;

purgeWrite      <purge_write>;

writeFormat     ascii;

writePrecision  <write_precision>;

writeCompression <write_compression>;

timeFormat      general;

timePrecision   <time_precision>;

runTimeModifiable true;


// ************************************************************************* //