/*--------------------------------*- C++ -*----------------------------------*\
Created by HTC_calculator
\*---------------------------------------------------------------------------*/
/*--------------------------------*- C++ -*----------------------------------*\
  =========                 |
  \\      /  F ield         | OpenFOAM: The Open Source CFD Toolbox
   \\    /   O peration     | Website:  https://openfoam.org
    \\  /    A nd           | Version:  9
     \\/     M anipulation  |
\*---------------------------------------------------------------------------*/
FoamFile
{
    format      ascii;
    class       dictionary;
    location    "constant/<material_id>";
    object      thermophysicalProperties;
}
// * * * * * * * * * * * * * * * * * * * * * * * * * * * * * * * * * * * * * //

thermoType
{
    type            heSolidThermo;
    mixture         pureMixture;
    transport       constIso;
    thermo          eConst;
    equationOfState rhoConst;
    specie          specie;
    energy          sensibleInternalEnergy;
}

mixture
{
    // <material_name>

    specie
    {
        molWeight       <molWeight>;
    }
    equationOfState
    {
        rho             <rho>;          // Density [kg/m^3].
    }
    transport
    {
        kappa           <kappa>;        // thermal conductivity [W/(m K)]
    }
    thermodynamics
    {
        Hf              0;                      // heat of fusion Hf
        Cv              <cv>;                   // specific heat cp at constant pressure
    }
}

// ************************************************************************* //
