/*--------------------------------*- C++ -*----------------------------------*\
  =========                 |
  \\      /  F ield         | OpenFOAM: The Open Source CFD Toolbox
   \\    /   O peration     | Website:  https://openfoam.org
    \\  /    A nd           | Version:  9
     \\/     M anipulation  |
\*---------------------------------------------------------------------------*/
FoamFile
{
    format      ascii;
    class       dictionary;
    location    "constant";
    object      thermophysicalTransport/<material_id>";
}
// * * * * * * * * * * * * * * * * * * * * * * * * * * * * * * * * * * * * * //

// <material_name>

RAS
{
    model           eddyDiffusivity;

    Prt             <prt>;       // Turbulent Prandtl number []
}


// ************************************************************************* //
